LAMMPS (15 Jul 2015)
# 250 butane system for drude polarizability example (Langevin)

units real
boundary p p p

atom_style full
bond_style harmonic
angle_style harmonic
dihedral_style opls
special_bonds lj/coul 0.0 0.0 0.5

pair_style hybrid/overlay lj/cut/coul/long 8.0 8.0 thole 2.089 8.0
pair_modify mix geometric tail yes
kspace_style pppm 1.0e-4

read_data data.drude
  orthogonal box = (-19.1 -19.0999 -19.1) to (19.1 19.1 19.1)
  reading atoms ...
  4500 atoms
  scanning bonds ...
  scanning angles ...
  scanning dihedrals ...
  reading bonds ...
  4250 bonds
  reading angles ...
  6000 angles
  reading dihedrals ...
  6750 dihedrals

comm_modify vel yes

group gBUTANE molecule 1:250
4500 atoms in group gBUTANE
group gCORES type 1 2 3
3500 atoms in group gCORES
group gDRUDES type 4 5
1000 atoms in group gDRUDES

pair_coeff    1    1 lj/cut/coul/long 0.065997 3.500000 # C3H C3H
pair_coeff    1    2 lj/cut/coul/long 0.065997 3.500000 # C3H C2H
pair_coeff    1    3 lj/cut/coul/long 0.044496 2.958040 # C3H H
pair_coeff    2    2 lj/cut/coul/long 0.065997 3.500000 # C2H C2H
pair_coeff    2    3 lj/cut/coul/long 0.044496 2.958040 # C2H H
pair_coeff    3    3 lj/cut/coul/long 0.029999 2.500000 # H H
pair_coeff    *  4*5 lj/cut/coul/long 0.000000 0.000000 # No lj for drudes
pair_coeff    1    * thole 1.368000
pair_coeff    2    * thole 1.368000
pair_coeff    4    * thole 1.368000
pair_coeff    5    * thole 1.368000

neighbor 2.0 bin

variable vTEMP   equal 260.0
variable vTEMP_D equal 1.0
variable vPRESS  equal 1.0

velocity gCORES  create 260 12345
velocity gDRUDES create 1 12345

fix fDRUDE all drude 1 1 0 2 2

fix fSHAKE gCORES shake 0.0001 20 0 b 2 4

compute cTEMP_DRUDE gDRUDES temp
compute cTEMP_DRUDE_DRUDE gDRUDES temp/drude
compute cTEMP_CORE gCORES temp/com

fix fLANG all langevin/drude 260 100.0 200611 1 20.0 260514 zero yes
fix fNPH all nph iso 1 1 500.0

thermo_style custom step cpu etotal ke temp pe ebond eangle edihed eimp evdwl ecoul elong press vol c_cTEMP_DRUDE c_cTEMP_DRUDE_DRUDE c_cTEMP_CORE f_fLANG[1] f_fLANG[2] f_fLANG[3] f_fLANG[4] f_fLANG[5] f_fLANG[6]
thermo 50

timestep 0.5
run 2000
PPPM initialization ...
  G vector (1/distance) = 0.367867
  grid = 36 36 36
  stencil order = 5
  estimated absolute RMS force accuracy = 0.031354
  estimated relative force accuracy = 9.44215e-05
  3d grid and FFT values/proc = 79507 46656
Rebuild special list taking Drude particles into account
Old max number of 1-2 to 1-4 neighbors: 17
New max number of 1-2 to 1-4 neighbors: 17 (+0)
  2 neighbor list requests
  update every 1 steps, delay 10 steps, check yes
Step CPU TotEng KinEng Temp PotEng E_bond E_angle E_dihed E_impro E_vdwl E_coul E_long Press Volume cTEMP_DR cTEMP_DR cTEMP_CO fLANG[1] fLANG[2] fLANG[3] fLANG[4] fLANG[5] fLANG[6]
0            0    6535.5187      2714.74    248.45112    3820.7787    3724.3278    140.75328    1.4735401            0   -518.77975    595169.42   -594696.41    -353319.1    55742.797            1    19.770966    341.28048    334.73928    18.435655         7997         3000    2659.7868    54.953184
Averages over the last 21 of 41 rows, steps 1000 to 2000:
TotEng KinEng Temp PotEng E_bond E_angle E_dihed E_impro E_vdwl E_coul E_long Press Volume cTEMP_DR cTEMP_DR cTEMP_CO fLANG[1] fLANG[2] fLANG[3] fLANG[4] fLANG[5] fLANG[6]
3351.79 2093.21 191.569 1258.58 232.094 1275.2 212.56 0 -890.137 595296 -594867 89.7441 63414.5 19.3224 1.54744 256.193 265.268 1.52048 7997 3000 2107.78 4.53226
Loop time of 161.264 on 1 procs (1 MPI x 1 OpenMP) for 2000 steps with 4500 atoms

Pair  time (%) = 58.3651 (36.1922)
Bond  time (%) = 16.8525 (10.4502)
Kspce time (%) = 21.3817 (13.2588)
Neigh time (%) = 1.29497 (0.803011)
Comm  time (%) = 0.307178 (0.190482)
Outpt time (%) = 0.00598621 (0.00371205)
Other time (%) = 63.0568 (39.1015)
