LAMMPS (8 Jul 2015)
units real
boundary p p p

atom_style full
bond_style harmonic
angle_style harmonic
dihedral_style opls
special_bonds lj/coul 0.0 0.0 0.5

pair_style hybrid/overlay lj/cut/coul/long 8.0 8.0 thole 2.600 8.0
kspace_style pppm 1.0e-4

comm_modify vel yes
read_data data.ethanol
  orthogonal box = (-14.0138 -14.0278 -14.0189) to (14.0169 14.0177 14.0857)
  reading atoms ...
  3000 atoms
  scanning bonds ...
  scanning angles ...
  scanning dihedrals ...
  reading bonds ...
  2750 bonds
  reading angles ...
  3250 angles
  reading dihedrals ...
  3000 dihedrals

pair_coeff    1    1 lj/cut/coul/long 0.065997 3.500000 # C3H C3H
pair_coeff    1    2 lj/cut/coul/long 0.065997 3.500000 # C3H CTO
pair_coeff    1    3 lj/cut/coul/long 0.044496 2.958040 # C3H H
pair_coeff    1    4 lj/cut/coul/long 0.105921 3.304542 # C3H OH
pair_coeff    1    5 lj/cut/coul/long 0.000000 0.000000 # C3H HO
pair_coeff    2    2 lj/cut/coul/long 0.065997 3.500000 # CTO CTO
pair_coeff    2    3 lj/cut/coul/long 0.044496 2.958040 # CTO H
pair_coeff    2    4 lj/cut/coul/long 0.105921 3.304542 # CTO OH
pair_coeff    2    5 lj/cut/coul/long 0.000000 0.000000 # CTO HO
pair_coeff    3    3 lj/cut/coul/long 0.029999 2.500000 # H H
pair_coeff    3    4 lj/cut/coul/long 0.071413 2.792848 # H OH
pair_coeff    3    5 lj/cut/coul/long 0.000000 0.000000 # H HO
pair_coeff    4    4 lj/cut/coul/long 0.169996 3.120000 # OH OH
pair_coeff    4    5 lj/cut/coul/long 0.000000 0.000000 # OH HO
pair_coeff    5    5 lj/cut/coul/long 0.000000 0.000000 # HO HO
pair_coeff    *  6*8 lj/cut/coul/long 0.000000 0.000000 # No lj for drudes
pair_coeff    1    1 thole 2.051000
pair_coeff    1    2 thole 1.580265
pair_coeff    1    4 thole 1.416087
pair_coeff    1    6 thole 2.051000
pair_coeff    1    7 thole 1.580265
pair_coeff    1    8 thole 1.416087
pair_coeff    2    2 thole 1.217570
pair_coeff    2    4 thole 1.091074
pair_coeff    2    6 thole 1.580265
pair_coeff    2    7 thole 1.217570
pair_coeff    2    8 thole 1.091074
pair_coeff    4    4 thole 0.977720
pair_coeff    4    6 thole 1.416087
pair_coeff    4    7 thole 1.091074
pair_coeff    4    8 thole 0.977720
pair_coeff    6    6 thole 2.051000
pair_coeff    6    7 thole 1.580265
pair_coeff    6    8 thole 1.416087
pair_coeff    7    7 thole 1.217570
pair_coeff    7    8 thole 1.091074
pair_coeff    8    8 thole 0.977720

group gETHANOL molecule 1:250
3000 atoms in group gETHANOL
group gATOMS type 1 2 3 4 5
2250 atoms in group gATOMS
group gDRUDES type 6 7 8
750 atoms in group gDRUDES

neighbor 2.0 bin

variable vTEMP   equal 300.0
variable vTEMP_D equal 1.0
variable vPRESS  equal 1.0

velocity gATOMS  create 300 12345
velocity gDRUDES create 1 12345

fix fDRUDE all drude Core Core NoPol Core NoPol Drude Drude Drude

fix fSHAKE gATOMS shake 0.0001 20 0 b 2 3 5

fix fLANG all langevin/drude 300 100.0 200611 1 20.0 260514 zero yes
fix fNPH all nph iso 1 1 500.0

thermo_style custom step cpu etotal ke temp pe ebond eangle edihed eimp evdwl ecoul elong press vol f_fLANG[1] f_fLANG[2]
thermo 20

timestep 0.5
run 2000
PPPM initialization ...
  G vector (1/distance) = 0.379738
  grid = 30 30 30
  stencil order = 5
  estimated absolute RMS force accuracy = 0.0289979
  estimated relative force accuracy = 8.73262e-05
  3d grid and FFT values/proc = 50653 27000
Rebuild special list taking Drude particles into account
Old max number of 1-2 to 1-4 neighbors: 11
New max number of 1-2 to 1-4 neighbors: 11 (+0)
  2 neighbor list requests
  update every 1 steps, delay 10 steps, check yes
Step CPU TotEng KinEng Temp PotEng E_bond E_angle E_dihed E_impro E_vdwl E_coul E_long Press Volume fLANG[1] fLANG[2]
0            0    13868.828    2013.3852    270.28772    11855.443     3145.896    51.880809 0.00019113234            0    8481.5109    514734.14   -514557.98    170217.61    22094.109    381.84578    10.134301
Averages over the last 51 of 101 rows, steps 1000 to 2000:
TotEng KinEng Temp PotEng E_bond E_angle E_dihed E_impro E_vdwl E_coul E_long Press Volume fLANG[1] fLANG[2]
702.996 1604.87 215.446 -901.873 685.837 813.919 135.819 0 -506.876 512976 -515007 -452.462 27121 309.891 1.38375
Loop time of 118.28 on 1 procs for 2000 steps with 3000 atoms

Pair  time (%) = 57.3476 (48.4845)
Bond  time (%) = 7.81508 (6.60726)
Kspce time (%) = 13.3637 (11.2984)
Neigh time (%) = 1.79044 (1.51373)
Comm  time (%) = 0.444633 (0.375915)
Outpt time (%) = 0.00935364 (0.00790804)
Other time (%) = 37.5093 (31.7123)
