LAMMPS (8 Jul 2015)
# 250 butane system for drude polarizability example (Nose-Hoover)

units real
boundary p p p

atom_style full
bond_style harmonic
angle_style harmonic
dihedral_style opls
special_bonds lj/coul 0.0 0.0 0.5

pair_style hybrid/overlay lj/cut/coul/long 8.0 8.0 thole 2.089 8.0
pair_modify mix geometric tail yes
kspace_style pppm 1.0e-4

read_data data.butane
  orthogonal box = (-19.1 -19.0999 -19.1) to (19.1 19.1 19.1)
  reading atoms ...
  4500 atoms
  scanning bonds ...
  scanning angles ...
  scanning dihedrals ...
  reading bonds ...
  4250 bonds
  reading angles ...
  6000 angles
  reading dihedrals ...
  6750 dihedrals

group gBUTANE molecule 1:250
4500 atoms in group gBUTANE
group gCORES type 1 2 3
3500 atoms in group gCORES
group gDRUDES type 4 5
1000 atoms in group gDRUDES

pair_coeff    1    1 lj/cut/coul/long 0.065997 3.500000 # C3H C3H
pair_coeff    1    2 lj/cut/coul/long 0.065997 3.500000 # C3H C2H
pair_coeff    1    3 lj/cut/coul/long 0.044496 2.958040 # C3H H
pair_coeff    2    2 lj/cut/coul/long 0.065997 3.500000 # C2H C2H
pair_coeff    2    3 lj/cut/coul/long 0.044496 2.958040 # C2H H
pair_coeff    3    3 lj/cut/coul/long 0.029999 2.500000 # H H
pair_coeff    *  4*5 lj/cut/coul/long 0.000000 0.000000 # No lj for drudes
pair_coeff    1    * thole 1.368000
pair_coeff    2    * thole 1.368000
pair_coeff    4    * thole 1.368000
pair_coeff    5    * thole 1.368000

neighbor 2.0 bin

variable vTEMP   equal 260.0
variable vTEMP_D equal 1.0
variable vPRESS  equal 1.0

velocity gCORES  create 260 12345
velocity gDRUDES create 1 12345

fix fDRUDE all drude Core Core NoPol Drude Drude

fix fSHAKE gCORES shake 0.0001 20 0 b 2 4

compute cTEMP_CORE gCORES temp/com

fix fDIRECT all drude/transform/direct
fix fNPT gCORES npt temp 260 260 100.0 iso 1 1 500.0
fix_modify fNPT temp cTEMP_CORE press thermo_press
fix fNVT gDRUDES nvt temp 1 1 100.0
fix fINVERSE all drude/transform/inverse temp

fix fMOMENTUM all momentum 100 linear 1 1 1

thermo_style custom step cpu etotal ke temp pe ebond eangle edihed eimp evdwl ecoul elong press vol f_fINVERSE[1] f_fINVERSE[2]
thermo 50

timestep 0.5
run 2000
PPPM initialization ...
  G vector (1/distance) = 0.367867
  grid = 36 36 36
  stencil order = 5
  estimated absolute RMS force accuracy = 0.031354
  estimated relative force accuracy = 9.44215e-05
  3d grid and FFT values/proc = 79507 46656
Rebuild special list taking Drude particles into account
Old max number of 1-2 to 1-4 neighbors: 17
New max number of 1-2 to 1-4 neighbors: 17 (+0)
  2 neighbor list requests
  update every 1 steps, delay 10 steps, check yes
Step CPU TotEng KinEng Temp PotEng E_bond E_angle E_dihed E_impro E_vdwl E_coul E_long Press Volume fINVERSE fINVERSE
0            0    6535.5187      2714.74    248.45112    3820.7787    3724.3278    140.75328    1.4735401            0   -518.77975    595169.42   -594696.41    -353319.1    55742.797    334.61375    18.435655
Averages over the last 21 of 41 rows, steps 1000 to 2000:
TotEng KinEng Temp PotEng E_bond E_angle E_dihed E_impro E_vdwl E_coul E_long Press Volume fINVERSE fINVERSE
3237.41 2071.66 189.597 1165.75 203.335 1075.81 222.788 0 -763.419 595291 -594864 167.464 61444.1 260.237 1.03639
Loop time of 167.644 on 1 procs for 2000 steps with 4500 atoms

Pair  time (%) = 57.7268 (34.4342)
Bond  time (%) = 17.3062 (10.3232)
Kspce time (%) = 21.2461 (12.6733)
Neigh time (%) = 1.58012 (0.942545)
Comm  time (%) = 0.159555 (0.095175)
Outpt time (%) = 0.0043602 (0.00260087)
Other time (%) = 69.6206 (41.5289)
